Representative_Reconfigurable_Test_Networks/selected_reconfigurable_networks/reconfigurable_outlier_case_6.m
function mpc = reconfigurable_outlier_case_6

% function mpc = ../matpowerfiles/LV_fg10
mpc.version = '2';
mpc.baseMVA = 1;
mpc.bus = [
	94	3	0.0	0.0	0.0	0.0	10	1	0	0.23	1	1.1	0.9;
	95	3	0.0	0.0	0.0	0.0	11	1	0	0.23	1	1.1	0.9;
	96	1	0.0	0.0	0.0	0.0	11	1	0	0.23	1	1.1	0.9;
	97	1	0.0	0.0	0.0	0.0	11	1	0	0.23	1	1.1	0.9;
	98	1	0.0	0.0	0.0	0.0	11	1	0	0.23	1	1.1	0.9;
	99	1	0.0	0.0	0.0	0.0	11	1	0	0.23	1	1.1	0.9;
	100	1	0.000795172700933	8.638467295400001e-05	0.0	0.0	11	1	0	0.23	1	1.1	0.9;
	101	1	0.0	0.0	0.0	0.0	11	1	0	0.23	1	1.1	0.9;
	102	1	0.0	0.0	0.0	0.0	11	1	0	0.23	1	1.1	0.9;
	103	1	0.0	0.0	0.0	0.0	11	1	0	0.23	1	1.1	0.9;
	104	1	0.0	0.0	0.0	0.0	11	1	0	0.23	1	1.1	0.9;
	105	1	0.0	0.0	0.0	0.0	11	1	0	0.23	1	1.1	0.9;
	106	1	0.0	0.0	0.0	0.0	11	1	0	0.23	1	1.1	0.9;
	107	1	0.010167798193383	0.00108930080928	0.0	0.0	11	1	0	0.23	1	1.1	0.9;
	108	1	0.0	0.0	0.0	0.0	11	1	0	0.23	1	1.1	0.9;
	109	3	0.0	0.0	0.0	0.0	12	1	0	0.23	1	1.1	0.9;
	110	1	0.0	0.0	0.0	0.0	12	1	0	0.23	1	1.1	0.9;
	111	1	0.0	0.0	0.0	0.0	12	1	0	0.23	1	1.1	0.9;
	112	1	0.0	0.0	0.0	0.0	12	1	0	0.23	1	1.1	0.9;
	113	1	0.002526666133844	0.000270594856997	0.0	0.0	12	1	0	0.23	1	1.1	0.9;
	114	1	0.0	0.0	0.0	0.0	12	1	0	0.23	1	1.1	0.9;
	115	1	0.001157441951062	0.000104074301948	0.0	0.0	12	1	0	0.23	1	1.1	0.9;
	116	1	0.0	0.0	0.0	0.0	12	1	0	0.23	1	1.1	0.9;
	117	1	0.0	0.0	0.0	0.0	12	1	0	0.23	1	1.1	0.9;
	118	1	0.0	0.0	0.0	0.0	12	1	0	0.23	1	1.1	0.9;
	119	1	0.0	0.0	0.0	0.0	12	1	0	0.23	1	1.1	0.9;
	120	1	0.0	0.0	0.0	0.0	12	1	0	0.23	1	1.1	0.9;
	121	1	0.004839956165172999	0.000445643621354	0.0	0.0	12	1	0	0.23	1	1.1	0.9;
	122	1	0.0	0.0	0.0	0.0	12	1	0	0.23	1	1.1	0.9;
	123	1	0.00207338078234	0.000226004267686	0.0	0.0	12	1	0	0.23	1	1.1	0.9;
	124	1	0.0	0.0	0.0	0.0	12	1	0	0.23	1	1.1	0.9;
	125	1	0.000701417138004	0.000101188144828	0.0	0.0	12	1	0	0.23	1	1.1	0.9;
	126	1	0.0	0.0	0.0	0.0	12	1	0	0.23	1	1.1	0.9;
	150	3	0.0	0.0	0.0	0.0	15	1	0	0.23	1	1.1	0.9;
	151	1	0.0	0.0	0.0	0.0	15	1	0	0.23	1	1.1	0.9;
	152	1	0.0	0.0	0.0	0.0	15	1	0	0.23	1	1.1	0.9;
	153	1	0.0	0.0	0.0	0.0	15	1	0	0.23	1	1.1	0.9;
	154	1	0.0	0.0	0.0	0.0	15	1	0	0.23	1	1.1	0.9;
	155	1	0.0	0.0	0.0	0.0	15	1	0	0.23	1	1.1	0.9;
	156	1	0.0	0.0	0.0	0.0	15	1	0	0.23	1	1.1	0.9;
	157	1	0.008740017379043999	0.000879840668411	0.0	0.0	15	1	0	0.23	1	1.1	0.9;
	158	1	0.0	0.0	0.0	0.0	15	1	0	0.23	1	1.1	0.9;
	159	1	0.0	0.0	0.0	0.0	15	1	0	0.23	1	1.1	0.9;
	160	1	0.0	0.0	0.0	0.0	15	1	0	0.23	1	1.1	0.9;
	161	1	0.0	0.0	0.0	0.0	15	1	0	0.23	1	1.1	0.9;
	162	1	0.0	0.0	0.0	0.0	15	1	0	0.23	1	1.1	0.9;
	163	1	0.0	0.0	0.0	0.0	15	1	0	0.23	1	1.1	0.9;
	164	1	0.0	0.0	0.0	0.0	15	1	0	0.23	1	1.1	0.9;
	165	1	0.0	0.0	0.0	0.0	15	1	0	0.23	1	1.1	0.9;
	166	1	0.008377702195576	0.000876084132661	0.0	0.0	15	1	0	0.23	1	1.1	0.9;
	167	1	0.0	0.0	0.0	0.0	15	1	0	0.23	1	1.1	0.9;
	168	1	0.0	0.0	0.0	0.0	15	1	0	0.23	1	1.1	0.9;
	169	1	0.0	0.0	0.0	0.0	15	1	0	0.23	1	1.1	0.9;
	170	1	0.00331869514693	0.0003946590273919999	0.0	0.0	15	1	0	0.23	1	1.1	0.9;
	171	1	0.0	0.0	0.0	0.0	15	1	0	0.23	1	1.1	0.9;
	172	1	0.0	0.0	0.0	0.0	15	1	0	0.23	1	1.1	0.9;
	173	1	0.0	0.0	0.0	0.0	15	1	0	0.23	1	1.1	0.9;
	174	1	0.00281061197982	0.00027560794622	0.0	0.0	15	1	0	0.23	1	1.1	0.9;
	175	1	0.0	0.0	0.0	0.0	15	1	0	0.23	1	1.1	0.9;
	176	1	0.0	0.0	0.0	0.0	15	1	0	0.23	1	1.1	0.9;
	177	1	0.0	0.0	0.0	0.0	15	1	0	0.23	1	1.1	0.9;
	178	1	0.000208170435891	2.5235375273e-05	0.0	0.0	15	1	0	0.23	1	1.1	0.9;
	179	1	0.0	0.0	0.0	0.0	15	1	0	0.23	1	1.1	0.9;
	180	1	0.002432401237535	0.00022840809326	0.0	0.0	15	1	0	0.23	1	1.1	0.9;
	181	1	0.0	0.0	0.0	0.0	15	1	0	0.23	1	1.1	0.9;
	182	1	0.0	0.0	0.0	0.0	15	1	0	0.23	1	1.1	0.9;
	183	1	0.0	0.0	0.0	0.0	15	1	0	0.23	1	1.1	0.9;
	184	1	0.0	0.0	0.0	0.0	15	1	0	0.23	1	1.1	0.9;
	185	1	0.0	0.0	0.0	0.0	15	1	0	0.23	1	1.1	0.9;
	186	1	0.0	0.0	0.0	0.0	15	1	0	0.23	1	1.1	0.9;
	187	1	0.0	0.0	0.0	0.0	15	1	0	0.23	1	1.1	0.9;
	188	1	0.0	0.0	0.0	0.0	15	1	0	0.23	1	1.1	0.9;
	189	1	0.0	0.0	0.0	0.0	15	1	0	0.23	1	1.1	0.9;
	190	1	0.0	0.0	0.0	0.0	15	1	0	0.23	1	1.1	0.9;
	191	1	0.0	0.0	0.0	0.0	15	1	0	0.23	1	1.1	0.9;
	192	1	0.001157208806632	8.6645776931e-05	0.0	0.0	15	1	0	0.23	1	1.1	0.9;
	193	1	0.0	0.0	0.0	0.0	15	1	0	0.23	1	1.1	0.9;
	194	1	0.00082744150773	6.2312158957e-05	0.0	0.0	15	1	0	0.23	1	1.1	0.9;
	195	1	0.0	0.0	0.0	0.0	15	1	0	0.23	1	1.1	0.9;
	196	1	0.0	0.0	0.0	0.0	15	1	0	0.23	1	1.1	0.9;
	197	1	0.000566057081052	6.9679497621e-05	0.0	0.0	15	1	0	0.23	1	1.1	0.9;
	198	1	0.0	0.0	0.0	0.0	15	1	0	0.23	1	1.1	0.9;
	199	1	0.0	0.0	0.0	0.0	15	1	0	0.23	1	1.1	0.9;
	200	1	0.0	0.0	0.0	0.0	15	1	0	0.23	1	1.1	0.9;
	201	1	0.004329091440655001	0.0004360399624879999	0.0	0.0	15	1	0	0.23	1	1.1	0.9;
	202	1	0.0	0.0	0.0	0.0	15	1	0	0.23	1	1.1	0.9;
	203	1	0.0	0.0	0.0	0.0	15	1	0	0.23	1	1.1	0.9;
	204	1	0.0	0.0	0.0	0.0	15	1	0	0.23	1	1.1	0.9;
	205	1	0.003038120434081	0.000301660894647	0.0	0.0	15	1	0	0.23	1	1.1	0.9;
	206	1	0.0	0.0	0.0	0.0	15	1	0	0.23	1	1.1	0.9;
	207	1	0.0	0.0	0.0	0.0	15	1	0	0.23	1	1.1	0.9;
	208	1	0.0	0.0	0.0	0.0	15	1	0	0.23	1	1.1	0.9;
	209	1	0.000231327065323	2.2304422778e-05	0.0	0.0	15	1	0	0.23	1	1.1	0.9;
	210	1	0.0	0.0	0.0	0.0	15	1	0	0.23	1	1.1	0.9;
	211	1	0.0	0.0	0.0	0.0	15	1	0	0.23	1	1.1	0.9;
	212	1	0.0	0.0	0.0	0.0	15	1	0	0.23	1	1.1	0.9;
	213	1	0.000377533943702	5.4767285048e-05	0.0	0.0	15	1	0	0.23	1	1.1	0.9;
	214	1	0.0	0.0	0.0	0.0	15	1	0	0.23	1	1.1	0.9;
	215	1	0.001192660922963	0.000120739548434	0.0	0.0	15	1	0	0.23	1	1.1	0.9;
	216	1	0.0	0.0	0.0	0.0	15	1	0	0.23	1	1.1	0.9;
	217	1	0.0	0.0	0.0	0.0	15	1	0	0.23	1	1.1	0.9;
	218	1	0.0	0.0	0.0	0.0	15	1	0	0.23	1	1.1	0.9;
	219	1	0.0	0.0	0.0	0.0	15	1	0	0.23	1	1.1	0.9;
	220	1	0.001923283032289	0.00019248767032	0.0	0.0	15	1	0	0.23	1	1.1	0.9;
	221	1	0.0	0.0	0.0	0.0	15	1	0	0.23	1	1.1	0.9;
	222	1	0.0	0.0	0.0	0.0	15	1	0	0.23	1	1.1	0.9;
	223	1	0.0	0.0	0.0	0.0	15	1	0	0.23	1	1.1	0.9;
	224	1	0.001181694724205	0.000157657158024	0.0	0.0	15	1	0	0.23	1	1.1	0.9;
	225	1	0.0	0.0	0.0	0.0	15	1	0	0.23	1	1.1	0.9;
	226	1	0.002058123494782	0.00022563073566	0.0	0.0	15	1	0	0.23	1	1.1	0.9;
	227	1	0.0	0.0	0.0	0.0	15	1	0	0.23	1	1.1	0.9;
	228	1	0.0	0.0	0.0	0.0	15	1	0	0.23	1	1.1	0.9;
	229	1	0.0	0.0	0.0	0.0	15	1	0	0.23	1	1.1	0.9;
	230	1	0.000743713745957	0.000109171207848	0.0	0.0	15	1	0	0.23	1	1.1	0.9;
	231	1	0.0	0.0	0.0	0.0	15	1	0	0.23	1	1.1	0.9;
	232	1	0.0	0.0	0.0	0.0	15	1	0	0.23	1	1.1	0.9;
	233	1	0.0	0.0	0.0	0.0	15	1	0	0.23	1	1.1	0.9;
	234	1	0.0	0.0	0.0	0.0	15	1	0	0.23	1	1.1	0.9;
	235	1	0.0	0.0	0.0	0.0	15	1	0	0.23	1	1.1	0.9;
	236	1	0.0	0.0	0.0	0.0	15	1	0	0.23	1	1.1	0.9;
	237	1	0.001639723465411	0.000152312523726	0.0	0.0	15	1	0	0.23	1	1.1	0.9;
	238	1	0.0	0.0	0.0	0.0	15	1	0	0.23	1	1.1	0.9;
	239	1	0.0	0.0	0.0	0.0	15	1	0	0.23	1	1.1	0.9;
	240	1	0.0	0.0	0.0	0.0	15	1	0	0.23	1	1.1	0.9;
	241	1	0.000697213254862	5.9561908002e-05	0.0	0.0	15	1	0	0.23	1	1.1	0.9;
	242	1	0.0	0.0	0.0	0.0	15	1	0	0.23	1	1.1	0.9;
	243	1	0.000422449411515	5.120351361099999e-05	0.0	0.0	15	1	0	0.23	1	1.1	0.9;
	244	1	0.0	0.0	0.0	0.0	15	1	0	0.23	1	1.1	0.9;
	245	1	0.000297949127999	2.3984234535e-05	0.0	0.0	15	1	0	0.23	1	1.1	0.9;
	246	1	0.0	0.0	0.0	0.0	15	1	0	0.23	1	1.1	0.9;
	247	1	0.0	0.0	0.0	0.0	15	1	0	0.23	1	1.1	0.9;
	248	1	0.0	0.0	0.0	0.0	15	1	0	0.23	1	1.1	0.9;
	254	3	0.0	0.0	0.0	0.0	19	1	0	0.23	1	1.1	0.9;
	255	1	0.0	0.0	0.0	0.0	19	1	0	0.23	1	1.1	0.9;
	256	1	0.0	0.0	0.0	0.0	19	1	0	0.23	1	1.1	0.9;
	257	1	0.0	0.0	0.0	0.0	19	1	0	0.23	1	1.1	0.9;
	258	1	0.0	0.0	0.0	0.0	19	1	0	0.23	1	1.1	0.9;
	259	1	0.0	0.0	0.0	0.0	19	1	0	0.23	1	1.1	0.9;
	260	1	0.0	0.0	0.0	0.0	19	1	0	0.23	1	1.1	0.9;
	261	1	0.0	0.0	0.0	0.0	19	1	0	0.23	1	1.1	0.9;
	262	1	0.0	0.0	0.0	0.0	19	1	0	0.23	1	1.1	0.9;
	263	1	0.000250351100825	2.4302041201e-05	0.0	0.0	19	1	0	0.23	1	1.1	0.9;
	264	1	0.0	0.0	0.0	0.0	19	1	0	0.23	1	1.1	0.9;
	265	1	0.011352396032509	0.00109313712103	0.0	0.0	19	1	0	0.23	1	1.1	0.9;
	266	1	0.0	0.0	0.0	0.0	19	1	0	0.23	1	1.1	0.9;
	267	1	0.0	0.0	0.0	0.0	19	1	0	0.23	1	1.1	0.9;
	268	1	0.0	0.0	0.0	0.0	19	1	0	0.23	1	1.1	0.9;
	269	1	0.0	0.0	0.0	0.0	19	1	0	0.23	1	1.1	0.9;
	270	1	0.000223285940042	2.4062984073e-05	0.0	0.0	19	1	0	0.23	1	1.1	0.9;
	271	1	0.0	0.0	0.0	0.0	19	1	0	0.23	1	1.1	0.9;
	272	1	0.000213805765822	1.4732761133e-05	0.0	0.0	19	1	0	0.23	1	1.1	0.9;
	273	1	0.0	0.0	0.0	0.0	19	1	0	0.23	1	1.1	0.9;
	274	1	0.0	0.0	0.0	0.0	19	1	0	0.23	1	1.1	0.9;
	275	1	0.000486155404466	4.8154430222e-05	0.0	0.0	19	1	0	0.23	1	1.1	0.9;
	276	1	0.0	0.0	0.0	0.0	19	1	0	0.23	1	1.1	0.9;
	277	1	0.0	0.0	0.0	0.0	19	1	0	0.23	1	1.1	0.9;
	278	1	0.000243241293839	2.4854656372e-05	0.0	0.0	19	1	0	0.23	1	1.1	0.9;
	279	1	0.0	0.0	0.0	0.0	19	1	0	0.23	1	1.1	0.9;
	280	1	0.0	0.0	0.0	0.0	19	1	0	0.23	1	1.1	0.9;
	281	1	0.0	0.0	0.0	0.0	19	1	0	0.23	1	1.1	0.9;
	282	1	0.0	0.0	0.0	0.0	19	1	0	0.23	1	1.1	0.9;
	283	1	0.0	0.0	0.0	0.0	19	1	0	0.23	1	1.1	0.9;
	284	1	0.0	0.0	0.0	0.0	19	1	0	0.23	1	1.1	0.9;
	285	1	0.0	0.0	0.0	0.0	19	1	0	0.23	1	1.1	0.9;
	286	1	0.0	0.0	0.0	0.0	19	1	0	0.23	1	1.1	0.9;
	287	1	0.0	0.0	0.0	0.0	19	1	0	0.23	1	1.1	0.9;
	288	1	0.00169818800147	0.000168560894334	0.0	0.0	19	1	0	0.23	1	1.1	0.9;
	327	3	0.0	0.0	0.0	0.0	24	1	0	0.23	1	1.1	0.9;
	328	1	0.0	0.0	0.0	0.0	24	1	0	0.23	1	1.1	0.9;
	329	1	0.00637939064238	0.0006084419323720001	0.0	0.0	24	1	0	0.23	1	1.1	0.9;
	330	1	0.0	0.0	0.0	0.0	24	1	0	0.23	1	1.1	0.9;
	331	1	0.004528952198761	0.0004745393751250001	0.0	0.0	24	1	0	0.23	1	1.1	0.9;
	332	1	0.0	0.0	0.0	0.0	24	1	0	0.23	1	1.1	0.9;
	333	1	0.00483554459925	0.000445800122104	0.0	0.0	24	1	0	0.23	1	1.1	0.9;
	334	1	0.0	0.0	0.0	0.0	24	1	0	0.23	1	1.1	0.9;
	335	1	0.004558092077	0.0004610492075729999	0.0	0.0	24	1	0	0.23	1	1.1	0.9;
	336	1	0.0	0.0	0.0	0.0	24	1	0	0.23	1	1.1	0.9;
	337	1	0.0	0.0	0.0	0.0	24	1	0	0.23	1	1.1	0.9;
	338	1	0.0	0.0	0.0	0.0	24	1	0	0.23	1	1.1	0.9;
	339	1	0.003873220079989	0.000349209264663	0.0	0.0	24	1	0	0.23	1	1.1	0.9;
	520	3	0.0	0.0	0.0	0.0	28	1	0	0.23	1	1.1	0.9;
	521	1	0.0	0.0	0.0	0.0	28	1	0	0.23	1	1.1	0.9;
	522	1	0.0	0.0	0.0	0.0	28	1	0	0.23	1	1.1	0.9;
	523	1	0.0	0.0	0.0	0.0	28	1	0	0.23	1	1.1	0.9;
	524	1	0.0	0.0	0.0	0.0	28	1	0	0.23	1	1.1	0.9;
	525	1	0.0	0.0	0.0	0.0	28	1	0	0.23	1	1.1	0.9;
	526	1	0.0	0.0	0.0	0.0	28	1	0	0.23	1	1.1	0.9;
	527	1	0.0	0.0	0.0	0.0	28	1	0	0.23	1	1.1	0.9;
	528	1	0.002838088065032999	0.000314497470898	0.0	0.0	28	1	0	0.23	1	1.1	0.9;
	529	1	0.0	0.0	0.0	0.0	28	1	0	0.23	1	1.1	0.9;
	530	1	0.005558620855686	0.0005197918586930001	0.0	0.0	28	1	0	0.23	1	1.1	0.9;
	531	1	0.0	0.0	0.0	0.0	28	1	0	0.23	1	1.1	0.9;
	532	1	0.004790539668076	0.0004405976402560001	0.0	0.0	28	1	0	0.23	1	1.1	0.9;
	533	1	0.0	0.0	0.0	0.0	28	1	0	0.23	1	1.1	0.9;
	534	1	0.00249559156104	0.000229162401498	0.0	0.0	28	1	0	0.23	1	1.1	0.9;
	535	1	0.0	0.0	0.0	0.0	28	1	0	0.23	1	1.1	0.9;
	536	1	0.0	0.0	0.0	0.0	28	1	0	0.23	1	1.1	0.9;
	537	1	0.0	0.0	0.0	0.0	28	1	0	0.23	1	1.1	0.9;
	538	1	0.0	0.0	0.0	0.0	28	1	0	0.23	1	1.1	0.9;
	539	1	0.000233289889498	2.509661712e-05	0.0	0.0	28	1	0	0.23	1	1.1	0.9;
	613	3	0.0	0.0	0.0	0.0	31	1	0	0.23	1	1.1	0.9;
	614	3	0.0	0.0	0.0	0.0	32	1	0	0.23	1	1.1	0.9;
	615	1	0.0	0.0	0.0	0.0	32	1	0	0.23	1	1.1	0.9;
	616	1	0.0	0.0	0.0	0.0	32	1	0	0.23	1	1.1	0.9;
	617	1	0.00019323545706	2.2274778278e-05	0.0	0.0	32	1	0	0.23	1	1.1	0.9;
	618	1	0.0	0.0	0.0	0.0	32	1	0	0.23	1	1.1	0.9;
	619	1	0.0	0.0	0.0	0.0	32	1	0	0.23	1	1.1	0.9;
	620	1	0.000808385457021	8.5225619714e-05	0.0	0.0	32	1	0	0.23	1	1.1	0.9;
	621	1	0.0	0.0	0.0	0.0	32	1	0	0.23	1	1.1	0.9;
	622	1	0.000845279019792	9.5656574513e-05	0.0	0.0	32	1	0	0.23	1	1.1	0.9;
	623	1	0.0	0.0	0.0	0.0	32	1	0	0.23	1	1.1	0.9;
	624	1	0.001541610057112	0.000147991559008	0.0	0.0	32	1	0	0.23	1	1.1	0.9;
	625	1	0.0	0.0	0.0	0.0	32	1	0	0.23	1	1.1	0.9;
	626	1	0.0	0.0	0.0	0.0	32	1	0	0.23	1	1.1	0.9;
	627	1	0.005702370338145999	0.0005407478334250001	0.0	0.0	32	1	0	0.23	1	1.1	0.9;
	628	1	0.0	0.0	0.0	0.0	32	1	0	0.23	1	1.1	0.9;
	629	1	0.0	0.0	0.0	0.0	32	1	0	0.23	1	1.1	0.9;
	630	1	0.0	0.0	0.0	0.0	32	1	0	0.23	1	1.1	0.9;
	631	1	0.0	0.0	0.0	0.0	32	1	0	0.23	1	1.1	0.9;
	632	1	0.00085864726535	7.2570974475e-05	0.0	0.0	32	1	0	0.23	1	1.1	0.9;
	633	1	0.0	0.0	0.0	0.0	32	1	0	0.23	1	1.1	0.9;
	634	1	0.004223756668559999	0.0003971081577159999	0.0	0.0	32	1	0	0.23	1	1.1	0.9;
	635	1	0.0	0.0	0.0	0.0	32	1	0	0.23	1	1.1	0.9;
	636	1	0.0	0.0	0.0	0.0	32	1	0	0.23	1	1.1	0.9;
	637	1	0.000780161831152	9.2532416002e-05	0.0	0.0	32	1	0	0.23	1	1.1	0.9;
	638	1	0.0	0.0	0.0	0.0	32	1	0	0.23	1	1.1	0.9;
	639	1	0.006593589730866999	0.000655102761188	0.0	0.0	32	1	0	0.23	1	1.1	0.9;
	640	1	0.0	0.0	0.0	0.0	32	1	0	0.23	1	1.1	0.9;
	641	1	0.0	0.0	0.0	0.0	32	1	0	0.23	1	1.1	0.9;
	642	1	0.0	0.0	0.0	0.0	32	1	0	0.23	1	1.1	0.9;
	643	1	0.003047655116177001	0.000328260697707	0.0	0.0	32	1	0	0.23	1	1.1	0.9;
	644	1	0.0	0.0	0.0	0.0	32	1	0	0.23	1	1.1	0.9;
	645	1	0.002621221597748	0.00023093279677	0.0	0.0	32	1	0	0.23	1	1.1	0.9;
	646	1	0.0	0.0	0.0	0.0	32	1	0	0.23	1	1.1	0.9;
	647	1	0.003133646933998	0.0003308583044299999	0.0	0.0	32	1	0	0.23	1	1.1	0.9;
	648	1	0.0	0.0	0.0	0.0	32	1	0	0.23	1	1.1	0.9;
	649	1	0.0	0.0	0.0	0.0	32	1	0	0.23	1	1.1	0.9;
	650	1	0.001223698605665	0.000116368130251	0.0	0.0	32	1	0	0.23	1	1.1	0.9;
	651	1	0.0	0.0	0.0	0.0	32	1	0	0.23	1	1.1	0.9;
	652	1	0.000732957342559	9.658242923199999e-05	0.0	0.0	32	1	0	0.23	1	1.1	0.9;
	653	1	0.0	0.0	0.0	0.0	32	1	0	0.23	1	1.1	0.9;
	654	1	0.000216666110764	1.8590089684e-05	0.0	0.0	32	1	0	0.23	1	1.1	0.9;
	1344	3	0.0	0.0	0.0	0.0	70	1	0	0.23	1	1.1	0.9;
	1345	1	0.0	0.0	0.0	0.0	70	1	0	0.23	1	1.1	0.9;
	1346	1	0.0	0.0	0.0	0.0	70	1	0	0.23	1	1.1	0.9;
	1347	1	0.0	0.0	0.0	0.0	70	1	0	0.23	1	1.1	0.9;
	1348	1	0.005405139578165999	0.0005200896667839999	0.0	0.0	70	1	0	0.23	1	1.1	0.9;
	1349	1	0.0	0.0	0.0	0.0	70	1	0	0.23	1	1.1	0.9;
	1350	1	0.005788761167923	0.000546477175689	0.0	0.0	70	1	0	0.23	1	1.1	0.9;
	1351	1	0.0	0.0	0.0	0.0	70	1	0	0.23	1	1.1	0.9;
	1352	1	0.006691288663303999	0.0007617238814759999	0.0	0.0	70	1	0	0.23	1	1.1	0.9;
	1353	1	0.0	0.0	0.0	0.0	70	1	0	0.23	1	1.1	0.9;
	1354	1	0.0	0.0	0.0	0.0	70	1	0	0.23	1	1.1	0.9;
	1355	1	0.0	0.0	0.0	0.0	70	1	0	0.23	1	1.1	0.9;
	1356	1	0.0	0.0	0.0	0.0	70	1	0	0.23	1	1.1	0.9;
	1357	1	0.0	0.0	0.0	0.0	70	1	0	0.23	1	1.1	0.9;
	1358	1	0.0	0.0	0.0	0.0	70	1	0	0.23	1	1.1	0.9;
	1359	1	0.002750254216684	0.000244933483512	0.0	0.0	70	1	0	0.23	1	1.1	0.9;
	1360	1	0.0	0.0	0.0	0.0	70	1	0	0.23	1	1.1	0.9;
	1361	1	0.002698944053393	0.00026425828041	0.0	0.0	70	1	0	0.23	1	1.1	0.9;
	1362	1	0.0	0.0	0.0	0.0	70	1	0	0.23	1	1.1	0.9;
	1363	1	0.005573133829637001	0.000527336329609	0.0	0.0	70	1	0	0.23	1	1.1	0.9;
	1364	1	0.0	0.0	0.0	0.0	70	1	0	0.23	1	1.1	0.9;
	1365	1	0.0	0.0	0.0	0.0	70	1	0	0.23	1	1.1	0.9;
	1533	3	0.0	0.0	0.0	0.0	90	1	0	0.23	1	1.1	0.9;
	1534	1	0.0	0.0	0.0	0.0	90	1	0	0.23	1	1.1	0.9;
	1535	1	0.0	0.0	0.0	0.0	90	1	0	0.23	1	1.1	0.9;
	1536	1	0.002082405446982	0.000209143301526	0.0	0.0	90	1	0	0.23	1	1.1	0.9;
	1537	1	0.0	0.0	0.0	0.0	90	1	0	0.23	1	1.1	0.9;
	1538	1	0.0	0.0	0.0	0.0	90	1	0	0.23	1	1.1	0.9;
	1539	1	0.000406387032677	3.9984890551e-05	0.0	0.0	90	1	0	0.23	1	1.1	0.9;
	1540	1	0.0	0.0	0.0	0.0	90	1	0	0.23	1	1.1	0.9;
	1541	1	0.000238074984067	2.3502650504e-05	0.0	0.0	90	1	0	0.23	1	1.1	0.9;
	1542	1	0.0	0.0	0.0	0.0	90	1	0	0.23	1	1.1	0.9;
	1543	1	0.000536440192457	4.0899967253e-05	0.0	0.0	90	1	0	0.23	1	1.1	0.9;
	1544	1	0.0	0.0	0.0	0.0	90	1	0	0.23	1	1.1	0.9;
	1545	1	0.0	0.0	0.0	0.0	90	1	0	0.23	1	1.1	0.9;
	1546	1	0.0	0.0	0.0	0.0	90	1	0	0.23	1	1.1	0.9;
	1547	1	0.0	0.0	0.0	0.0	90	1	0	0.23	1	1.1	0.9;
	1548	1	0.000219278419788	2.5016719451e-05	0.0	0.0	90	1	0	0.23	1	1.1	0.9;
	1549	1	0.0	0.0	0.0	0.0	90	1	0	0.23	1	1.1	0.9;
	1550	1	0.0	0.0	0.0	0.0	90	1	0	0.23	1	1.1	0.9;
	1551	1	0.00024369474324	2.0574539285e-05	0.0	0.0	90	1	0	0.23	1	1.1	0.9;
	1552	1	0.0	0.0	0.0	0.0	90	1	0	0.23	1	1.1	0.9;
	1553	1	0.002928610761323	0.000263135936786	0.0	0.0	90	1	0	0.23	1	1.1	0.9;
	1554	1	0.0	0.0	0.0	0.0	90	1	0	0.23	1	1.1	0.9;
	1555	1	0.0	0.0	0.0	0.0	90	1	0	0.23	1	1.1	0.9;
	1556	1	0.0	0.0	0.0	0.0	90	1	0	0.23	1	1.1	0.9;
	1557	1	0.0	0.0	0.0	0.0	90	1	0	0.23	1	1.1	0.9;
	1558	1	0.001186581931217	0.000145168711454	0.0	0.0	90	1	0	0.23	1	1.1	0.9;
	1559	1	0.0	0.0	0.0	0.0	90	1	0	0.23	1	1.1	0.9;
	1560	1	0.0	0.0	0.0	0.0	90	1	0	0.23	1	1.1	0.9;
	1561	1	0.0	0.0	0.0	0.0	90	1	0	0.23	1	1.1	0.9;
	1562	1	0.000851948727225	8.0057837013e-05	0.0	0.0	90	1	0	0.23	1	1.1	0.9;
	1563	1	0.0	0.0	0.0	0.0	90	1	0	0.23	1	1.1	0.9;
	1564	1	0.0	0.0	0.0	0.0	90	1	0	0.23	1	1.1	0.9;
	1565	1	0.000305141540797	2.3777958297e-05	0.0	0.0	90	1	0	0.23	1	1.1	0.9;
	1566	1	0.0	0.0	0.0	0.0	90	1	0	0.23	1	1.1	0.9;
	1567	1	0.0	0.0	0.0	0.0	90	1	0	0.23	1	1.1	0.9;
	1568	1	0.0	0.0	0.0	0.0	90	1	0	0.23	1	1.1	0.9;
	1569	1	0.0	0.0	0.0	0.0	90	1	0	0.23	1	1.1	0.9;
	1570	1	0.0	0.0	0.0	0.0	90	1	0	0.23	1	1.1	0.9;
	1571	1	0.0	0.0	0.0	0.0	90	1	0	0.23	1	1.1	0.9;
	1572	1	0.0	0.0	0.0	0.0	90	1	0	0.23	1	1.1	0.9;
	1573	1	0.0	0.0	0.0	0.0	90	1	0	0.23	1	1.1	0.9;
	1574	1	0.001241893488057	0.000118988037763	0.0	0.0	90	1	0	0.23	1	1.1	0.9;
	1575	1	0.0	0.0	0.0	0.0	90	1	0	0.23	1	1.1	0.9;
	1576	1	0.001368305624017	0.000145839480411	0.0	0.0	90	1	0	0.23	1	1.1	0.9;
	1577	1	0.0	0.0	0.0	0.0	90	1	0	0.23	1	1.1	0.9;
	1578	1	0.0007727343151320001	6.3443536018e-05	0.0	0.0	90	1	0	0.23	1	1.1	0.9;
	1579	1	0.0	0.0	0.0	0.0	90	1	0	0.23	1	1.1	0.9;
	1580	1	0.000208806174763	1.9490346791e-05	0.0	0.0	90	1	0	0.23	1	1.1	0.9;
	1581	1	0.0	0.0	0.0	0.0	90	1	0	0.23	1	1.1	0.9;
	1582	1	0.0	0.0	0.0	0.0	90	1	0	0.23	1	1.1	0.9;
	1583	1	0.003854900243892	0.000392971813663	0.0	0.0	90	1	0	0.23	1	1.1	0.9;
	1584	1	0.0	0.0	0.0	0.0	90	1	0	0.23	1	1.1	0.9;
	1585	1	0.0	0.0	0.0	0.0	90	1	0	0.23	1	1.1	0.9;
	1586	1	0.0	0.0	0.0	0.0	90	1	0	0.23	1	1.1	0.9;
	1587	1	0.0	0.0	0.0	0.0	90	1	0	0.23	1	1.1	0.9;
	1588	1	0.001990654055856	0.000209395842081	0.0	0.0	90	1	0	0.23	1	1.1	0.9;
	1589	1	0.0	0.0	0.0	0.0	90	1	0	0.23	1	1.1	0.9;
	1590	1	0.0	0.0	0.0	0.0	90	1	0	0.23	1	1.1	0.9;
	1591	1	0.001441085766576	0.000129804532181	0.0	0.0	90	1	0	0.23	1	1.1	0.9;
	1592	1	0.0	0.0	0.0	0.0	90	1	0	0.23	1	1.1	0.9;
	1593	1	0.002229788991821	0.000242108646345	0.0	0.0	90	1	0	0.23	1	1.1	0.9;
	1594	1	0.0	0.0	0.0	0.0	90	1	0	0.23	1	1.1	0.9;
	1595	1	0.001488534922695	0.000131599173725	0.0	0.0	90	1	0	0.23	1	1.1	0.9;
	1596	1	0.0	0.0	0.0	0.0	90	1	0	0.23	1	1.1	0.9;
	1597	1	0.006529940307111	0.0005507312135850001	0.0	0.0	90	1	0	0.23	1	1.1	0.9;
	1598	1	0.0	0.0	0.0	0.0	90	1	0	0.23	1	1.1	0.9;
	1599	1	0.0	0.0	0.0	0.0	90	1	0	0.23	1	1.1	0.9;
	1600	1	0.0	0.0	0.0	0.0	90	1	0	0.23	1	1.1	0.9;
	1601	1	0.0	0.0	0.0	0.0	90	1	0	0.23	1	1.1	0.9;
	1602	1	0.0	0.0	0.0	0.0	90	1	0	0.23	1	1.1	0.9;
	1603	1	0.0	0.0	0.0	0.0	90	1	0	0.23	1	1.1	0.9;
	1604	1	0.0	0.0	0.0	0.0	90	1	0	0.23	1	1.1	0.9;
	1605	1	0.0	0.0	0.0	0.0	90	1	0	0.23	1	1.1	0.9;
	1606	1	0.000416176786879	4.501335824e-05	0.0	0.0	90	1	0	0.23	1	1.1	0.9;
	1607	1	0.0	0.0	0.0	0.0	90	1	0	0.23	1	1.1	0.9;
	1608	1	0.0	0.0	0.0	0.0	90	1	0	0.23	1	1.1	0.9;
	1609	1	0.0	0.0	0.0	0.0	90	1	0	0.23	1	1.1	0.9;
	1610	1	0.000177559051397	2.6002358803e-05	0.0	0.0	90	1	0	0.23	1	1.1	0.9;
	1611	1	0.0	0.0	0.0	0.0	90	1	0	0.23	1	1.1	0.9;
	1612	1	0.000291655265848	2.5083799449e-05	0.0	0.0	90	1	0	0.23	1	1.1	0.9;
	1613	1	0.0	0.0	0.0	0.0	90	1	0	0.23	1	1.1	0.9;
	1614	1	0.0	0.0	0.0	0.0	90	1	0	0.23	1	1.1	0.9;
	1615	1	0.0	0.0	0.0	0.0	90	1	0	0.23	1	1.1	0.9;
	1616	1	0.0	0.0	0.0	0.0	90	1	0	0.23	1	1.1	0.9;
	1617	1	0.000795548770763	6.6315031684e-05	0.0	0.0	90	1	0	0.23	1	1.1	0.9;
];

mpc.gen = [
	94	0.0	0.0	Inf	-Inf	1	1	1	Inf	-Inf;
	95	0.0	0.0	Inf	-Inf	1	1	1	Inf	-Inf;
	109	0.0	0.0	Inf	-Inf	1	1	1	Inf	-Inf;
	150	0.0	0.0	Inf	-Inf	1	1	1	Inf	-Inf;
	254	0.0	0.0	Inf	-Inf	1	1	1	Inf	-Inf;
	327	0.0	0.0	Inf	-Inf	1	1	1	Inf	-Inf;
	520	0.0	0.0	Inf	-Inf	1	1	1	Inf	-Inf;
	613	0.0	0.0	Inf	-Inf	1	1	1	Inf	-Inf;
	614	0.0	0.0	Inf	-Inf	1	1	1	Inf	-Inf;
	1344	0.0	0.0	Inf	-Inf	1	1	1	Inf	-Inf;
	1533	0.0	0.0	Inf	-Inf	1	1	1	Inf	-Inf;
];

mpc.gencost = [
	2	0	0	2	1	0;
	2	0	0	2	1	0;
	2	0	0	2	1	0;
	2	0	0	2	1	0;
	2	0	0	2	1	0;
	2	0	0	2	1	0;
	2	0	0	2	1	0;
	2	0	0	2	1	0;
	2	0	0	2	1	0;
	2	0	0	2	1	0;
	2	0	0	2	1	0;
];

mpc.branch = [
	95	96	0.008495274102079394	0.0030340264650283552	0	0	0	0	0	0	1	-89.9	89.9;
	96	97	0.04744683081285443	0.017465973534971643	0	0	0	0	0	0	1	-89.9	89.9;
	97	98	0.036665444234404536	0.013497164461247636	0	0	0	0	0	0	1	-89.9	89.9;
	98	99	0.12806715879017014	0.047143667296786394	0	0	0	0	0	0	1	-89.9	89.9;
	99	100	0.00021739130434782607	2.835538752362949e-05	0	0	0	0	0	0	1	-89.9	89.9;
	96	101	0.04235727788279773	0.015127599243856333	0	0	0	0	0	0	1	-89.9	89.9;
	101	102	0.062007561436672964	0.02214555765595463	0	0	0	0	0	0	1	-89.9	89.9;
	102	103	0.054187145557655955	0.019352551984877123	0	0	0	0	0	0	1	-89.9	89.9;
	103	104	0.004168241965973534	0.001488657844990548	0	0	0	0	0	0	1	-89.9	89.9;
	104	105	0.008336483931947069	0.002977315689981096	0	0	0	0	0	0	1	-89.9	89.9;
	105	106	0.00988468809073724	0.003530245746691871	0	0	0	0	0	0	1	-89.9	89.9;
	106	107	0.00021739130434782607	2.835538752362949e-05	0	0	0	0	0	0	1	-89.9	89.9;
	104	108	0.008296786389413988	0.003160680529300567	0	0	0	0	0	0	1	-89.9	89.9;
	109	110	0.05851417769376181	0.02089792060491493	0	0	0	0	0	0	1	-89.9	89.9;
	110	111	0.057759924385633266	0.02062854442344045	0	0	0	0	0	0	1	-89.9	89.9;
	111	112	0.12367616483931947	0.030687334593572774	0	0	0	0	0	0	1	-89.9	89.9;
	112	113	0.00021739130434782607	2.835538752362949e-05	0	0	0	0	0	0	1	-89.9	89.9;
	112	114	0.047637051039697544	0.017013232514177693	0	0	0	0	0	0	1	-89.9	89.9;
	114	115	0.00021739130434782607	2.835538752362949e-05	0	0	0	0	0	0	1	-89.9	89.9;
	114	116	0.008376181474480151	0.002991493383742911	0	0	0	0	0	0	1	-89.9	89.9;
	116	117	0.0057164461247637055	0.0020415879017013235	0	0	0	0	0	0	1	-89.9	89.9;
	117	118	0.02893950850661625	0.010335538752362946	0	0	0	0	0	0	1	-89.9	89.9;
	118	119	0.015323251417769374	0.005472589792060491	0	0	0	0	0	0	1	-89.9	89.9;
	118	120	0.011512287334593571	0.0041115311909262755	0	0	0	0	0	0	1	-89.9	89.9;
	120	121	0.00021739130434782607	2.835538752362949e-05	0	0	0	0	0	0	1	-89.9	89.9;
	111	122	0.22863817315689983	0.05673119092627599	0	0	0	0	0	0	1	-89.9	89.9;
	122	123	0.00021739130434782607	2.835538752362949e-05	0	0	0	0	0	0	1	-89.9	89.9;
	122	124	0.3406518926275992	0.08452476370510396	0	0	0	0	0	0	1	-89.9	89.9;
	124	125	0.00021739130434782607	2.835538752362949e-05	0	0	0	0	0	0	1	-89.9	89.9;
	124	126	0.061967863894139885	0.022131379962192815	0	0	0	0	0	0	1	-89.9	89.9;
	150	151	0.05720415879017013	0.020430056710775045	0	0	0	0	0	0	1	-89.9	89.9;
	151	152	0.06188846880907371	0.022103024574669186	0	0	0	0	0	0	1	-89.9	89.9;
	152	153	0.05549716446124763	0.019820415879017013	0	0	0	0	0	0	1	-89.9	89.9;
	153	154	0.03743478260869565	0.013369565217391301	0	0	0	0	0	0	1	-89.9	89.9;
	154	155	0.0829281663516068	0.029617202268430995	0	0	0	0	0	0	1	-89.9	89.9;
	155	156	0.026795841209829866	0.009569943289224952	0	0	0	0	0	0	1	-89.9	89.9;
	156	157	0.00021739130434782607	2.835538752362949e-05	0	0	0	0	0	0	1	-89.9	89.9;
	156	158	0.04465973534971644	0.015949905482041588	0	0	0	0	0	0	1	-89.9	89.9;
	158	159	0.021793950850661624	0.007783553875236294	0	0	0	0	0	0	1	-89.9	89.9;
	159	160	0.018300567107750472	0.006535916824196597	0	0	0	0	0	0	1	-89.9	89.9;
	160	161	0.00021739130434782607	2.835538752362949e-05	0	0	0	0	0	0	1	-89.9	89.9;
	160	162	0.014846880907372398	0.005302457466918714	0	0	0	0	0	0	1	-89.9	89.9;
	159	163	0.07494896030245747	0.026767485822306234	0	0	0	0	0	0	1	-89.9	89.9;
	163	164	0.022548204158790167	0.008052930056710775	0	0	0	0	0	0	1	-89.9	89.9;
	164	165	0.028899810964083172	0.010321361058601132	0	0	0	0	0	0	1	-89.9	89.9;
	165	166	0.00021739130434782607	2.835538752362949e-05	0	0	0	0	0	0	1	-89.9	89.9;
	165	167	0.016911153119092626	0.00603969754253308	0	0	0	0	0	0	1	-89.9	89.9;
	156	168	0.027708884688090737	0.00989603024574669	0	0	0	0	0	0	1	-89.9	89.9;
	154	169	0.03207561436672968	0.011455576559546312	0	0	0	0	0	0	1	-89.9	89.9;
	169	170	0.00021739130434782607	2.835538752362949e-05	0	0	0	0	0	0	1	-89.9	89.9;
	169	171	0.004803402646502836	0.001715500945179584	0	0	0	0	0	0	1	-89.9	89.9;
	171	172	0.19793194706994327	0.07068998109640831	0	0	0	0	0	0	1	-89.9	89.9;
	172	173	0.02231001890359168	0.007967863894139886	0	0	0	0	0	0	1	-89.9	89.9;
	173	174	0.00021739130434782607	2.835538752362949e-05	0	0	0	0	0	0	1	-89.9	89.9;
	173	175	0.0173875236294896	0.006209829867674858	0	0	0	0	0	0	1	-89.9	89.9;
	172	176	0.032869565217391296	0.011739130434782606	0	0	0	0	0	0	1	-89.9	89.9;
	176	177	0.026200378071833643	0.009357277882797731	0	0	0	0	0	0	1	-89.9	89.9;
	177	178	0.00021739130434782607	2.835538752362949e-05	0	0	0	0	0	0	1	-89.9	89.9;
	177	179	0.04041209829867675	0.014432892249527408	0	0	0	0	0	0	1	-89.9	89.9;
	179	180	0.00021739130434782607	2.835538752362949e-05	0	0	0	0	0	0	1	-89.9	89.9;
	177	181	0.01579962192816635	0.005642722117202268	0	0	0	0	0	0	1	-89.9	89.9;
	176	182	0.02457277882797731	0.008775992438563326	0	0	0	0	0	0	1	-89.9	89.9;
	182	183	0.00021739130434782607	2.835538752362949e-05	0	0	0	0	0	0	1	-89.9	89.9;
	171	184	0.011393194706994328	0.004068998109640832	0	0	0	0	0	0	1	-89.9	89.9;
	184	185	0.05093877788279773	0.018751417769376184	0	0	0	0	0	0	1	-89.9	89.9;
	185	186	0.24238477599243857	0.08922589792060492	0	0	0	0	0	0	1	-89.9	89.9;
	186	187	0.029376004725897915	0.010813799621928168	0	0	0	0	0	0	1	-89.9	89.9;
	187	188	0.04644289603024574	0.01709640831758034	0	0	0	0	0	0	1	-89.9	89.9;
	188	189	0.01849905482041588	0.00660680529300567	0	0	0	0	0	0	1	-89.9	89.9;
	188	190	0.01606295652173913	0.00591304347826087	0	0	0	0	0	0	1	-89.9	89.9;
	190	191	0.14574514083175805	0.053651228733459365	0	0	0	0	0	0	1	-89.9	89.9;
	191	192	0.00021739130434782607	2.835538752362949e-05	0	0	0	0	0	0	1	-89.9	89.9;
	191	193	0.007621928166351606	0.0027221172022684308	0	0	0	0	0	0	1	-89.9	89.9;
	193	194	0.00021739130434782607	2.835538752362949e-05	0	0	0	0	0	0	1	-89.9	89.9;
	190	195	0.10480206143667295	0.038579395085066165	0	0	0	0	0	0	1	-89.9	89.9;
	195	196	0.027121965973534973	0.006729678638941398	0	0	0	0	0	0	1	-89.9	89.9;
	196	197	0.00021739130434782607	2.835538752362949e-05	0	0	0	0	0	0	1	-89.9	89.9;
	188	198	0.12309113421550094	0.04531190926275993	0	0	0	0	0	0	1	-89.9	89.9;
	198	199	0.04853806427221171	0.017867674858223062	0	0	0	0	0	0	1	-89.9	89.9;
	199	200	0.027732210207939506	0.006881096408317579	0	0	0	0	0	0	1	-89.9	89.9;
	200	201	0.00021739130434782607	2.835538752362949e-05	0	0	0	0	0	0	1	-89.9	89.9;
	199	202	0.24443629489603022	0.08998109640831758	0	0	0	0	0	0	1	-89.9	89.9;
	202	203	0.21824669187145557	0.08034026465028356	0	0	0	0	0	0	1	-89.9	89.9;
	198	204	0.03030879697542533	0.007520415879017013	0	0	0	0	0	0	1	-89.9	89.9;
	204	205	0.00021739130434782607	2.835538752362949e-05	0	0	0	0	0	0	1	-89.9	89.9;
	186	206	0.10484571077504726	0.038595463137996215	0	0	0	0	0	0	1	-89.9	89.9;
	206	207	0.011436126654064271	0.004209829867674858	0	0	0	0	0	0	1	-89.9	89.9;
	207	208	0.06329154064272212	0.02329867674858223	0	0	0	0	0	0	1	-89.9	89.9;
	208	209	0.00021739130434782607	2.835538752362949e-05	0	0	0	0	0	0	1	-89.9	89.9;
	208	210	0.014273333648393194	0.005254253308128544	0	0	0	0	0	0	1	-89.9	89.9;
	210	211	0.00021739130434782607	2.835538752362949e-05	0	0	0	0	0	0	1	-89.9	89.9;
	210	212	0.030379939508506613	0.011183364839319471	0	0	0	0	0	0	1	-89.9	89.9;
	212	213	0.00021739130434782607	2.835538752362949e-05	0	0	0	0	0	0	1	-89.9	89.9;
	212	214	0.037320184310018906	0.013738185255198489	0	0	0	0	0	0	1	-89.9	89.9;
	214	215	0.00021739130434782607	2.835538752362949e-05	0	0	0	0	0	0	1	-89.9	89.9;
	214	216	0.012221814744801513	0.004499054820415879	0	0	0	0	0	0	1	-89.9	89.9;
	216	217	0.00021739130434782607	2.835538752362949e-05	0	0	0	0	0	0	1	-89.9	89.9;
	206	218	0.01610660586011342	0.005929111531190926	0	0	0	0	0	0	1	-89.9	89.9;
	218	219	0.013051152173913044	0.004804347826086957	0	0	0	0	0	0	1	-89.9	89.9;
	219	220	0.00021739130434782607	2.835538752362949e-05	0	0	0	0	0	0	1	-89.9	89.9;
	219	221	0.04204914933837429	0.0030438563327032137	0	0	0	0	0	0	1	-89.9	89.9;
	221	222	0.16819659735349715	0.012175425330812855	0	0	0	0	0	0	1	-89.9	89.9;
	222	223	0.042809073724007565	0.003098865784499055	0	0	0	0	0	0	1	-89.9	89.9;
	223	224	0.00021739130434782607	2.835538752362949e-05	0	0	0	0	0	0	1	-89.9	89.9;
	219	225	0.025403914933837427	0.009351606805293006	0	0	0	0	0	0	1	-89.9	89.9;
	225	226	0.00021739130434782607	2.835538752362949e-05	0	0	0	0	0	0	1	-89.9	89.9;
	225	227	0.016674047258979207	0.006137996219281664	0	0	0	0	0	0	1	-89.9	89.9;
	206	228	0.06412087807183364	0.023603969754253308	0	0	0	0	0	0	1	-89.9	89.9;
	228	229	0.0329116011342155	0.012115311909262759	0	0	0	0	0	0	1	-89.9	89.9;
	229	230	0.00021739130434782607	2.835538752362949e-05	0	0	0	0	0	0	1	-89.9	89.9;
	229	231	0.007900530245746691	0.0029083175803402647	0	0	0	0	0	0	1	-89.9	89.9;
	229	232	0.011671077504725897	0.004168241965973534	0	0	0	0	0	0	1	-89.9	89.9;
	232	233	0.00021739130434782607	2.835538752362949e-05	0	0	0	0	0	0	1	-89.9	89.9;
	232	234	0.004724007561436673	0.0016871455576559545	0	0	0	0	0	0	1	-89.9	89.9;
	234	235	0.009964083175803402	0.0035586011342155005	0	0	0	0	0	0	1	-89.9	89.9;
	234	236	0.05228166351606805	0.018672022684310015	0	0	0	0	0	0	1	-89.9	89.9;
	236	237	0.00021739130434782607	2.835538752362949e-05	0	0	0	0	0	0	1	-89.9	89.9;
	228	238	0.13151545652173913	0.04841304347826087	0	0	0	0	0	0	1	-89.9	89.9;
	238	239	0.025360265595463137	0.009335538752362949	0	0	0	0	0	0	1	-89.9	89.9;
	239	240	0.014013232514177692	0.005004725897920605	0	0	0	0	0	0	1	-89.9	89.9;
	240	241	0.00021739130434782607	2.835538752362949e-05	0	0	0	0	0	0	1	-89.9	89.9;
	240	242	0.03366351606805293	0.012824196597353496	0	0	0	0	0	0	1	-89.9	89.9;
	242	243	0.00021739130434782607	2.835538752362949e-05	0	0	0	0	0	0	1	-89.9	89.9;
	238	244	0.025142018903591683	0.009255198487712666	0	0	0	0	0	0	1	-89.9	89.9;
	244	245	0.00021739130434782607	2.835538752362949e-05	0	0	0	0	0	0	1	-89.9	89.9;
	169	246	0.01488657844990548	0.005671077504725897	0	0	0	0	0	0	1	-89.9	89.9;
	169	247	0.06236483931947069	0.023758034026465025	0	0	0	0	0	0	1	-89.9	89.9;
	153	248	0.004168241965973534	0.001488657844990548	0	0	0	0	0	0	1	-89.9	89.9;
	254	255	0.2447750472589792	0.08741965973534971	0	0	0	0	0	0	1	-89.9	89.9;
	255	256	0.10885066162570887	0.038875236294896025	0	0	0	0	0	0	1	-89.9	89.9;
	256	257	0.01389413988657845	0.00496219281663516	0	0	0	0	0	0	1	-89.9	89.9;
	255	258	0.1198071833648393	0.0427882797731569	0	0	0	0	0	0	1	-89.9	89.9;
	258	259	0.004207939508506616	0.0015028355387523627	0	0	0	0	0	0	1	-89.9	89.9;
	259	260	0.033306238185255195	0.011895085066162568	0	0	0	0	0	0	1	-89.9	89.9;
	260	261	0.004168241965973534	0.001488657844990548	0	0	0	0	0	0	1	-89.9	89.9;
	260	262	0.09428166351606804	0.033672022684310014	0	0	0	0	0	0	1	-89.9	89.9;
	262	263	0.00021739130434782607	2.835538752362949e-05	0	0	0	0	0	0	1	-89.9	89.9;
	259	264	0.17780529300567108	0.06350189035916824	0	0	0	0	0	0	1	-89.9	89.9;
	264	265	0.00021739130434782607	2.835538752362949e-05	0	0	0	0	0	0	1	-89.9	89.9;
	264	266	0.00555765595463138	0.001984877126654064	0	0	0	0	0	0	1	-89.9	89.9;
	266	267	0.12811080812854442	0.04715973534971645	0	0	0	0	0	0	1	-89.9	89.9;
	267	268	0.026757044423440454	0.009849716446124764	0	0	0	0	0	0	1	-89.9	89.9;
	268	269	0.050217391304347825	0.01793478260869565	0	0	0	0	0	0	1	-89.9	89.9;
	269	270	0.00021739130434782607	2.835538752362949e-05	0	0	0	0	0	0	1	-89.9	89.9;
	269	271	0.04235727788279773	0.015127599243856333	0	0	0	0	0	0	1	-89.9	89.9;
	271	272	0.00021739130434782607	2.835538752362949e-05	0	0	0	0	0	0	1	-89.9	89.9;
	271	273	0.016633270321361058	0.005940453686200378	0	0	0	0	0	0	1	-89.9	89.9;
	268	274	0.37768241965973537	0.027339697542533077	0	0	0	0	0	0	1	-89.9	89.9;
	274	275	0.00021739130434782607	2.835538752362949e-05	0	0	0	0	0	0	1	-89.9	89.9;
	274	276	0.10512287334593572	0.007609640831758034	0	0	0	0	0	0	1	-89.9	89.9;
	268	277	0.010083175803402648	0.003601134215500945	0	0	0	0	0	0	1	-89.9	89.9;
	277	278	0.00021739130434782607	2.835538752362949e-05	0	0	0	0	0	0	1	-89.9	89.9;
	277	279	0.006113421550094517	0.0021833648393194704	0	0	0	0	0	0	1	-89.9	89.9;
	279	280	0.00021739130434782607	2.835538752362949e-05	0	0	0	0	0	0	1	-89.9	89.9;
	279	281	0.008614366729678639	0.0030765595463137993	0	0	0	0	0	0	1	-89.9	89.9;
	267	282	0.07907750472589792	0.02824196597353497	0	0	0	0	0	0	1	-89.9	89.9;
	282	283	0.026233252362948954	0.009656899810964082	0	0	0	0	0	0	1	-89.9	89.9;
	283	284	0.004168241965973534	0.0015879017013232513	0	0	0	0	0	0	1	-89.9	89.9;
	284	285	0.008336483931947069	0.0031758034026465026	0	0	0	0	0	0	1	-89.9	89.9;
	284	286	0.008296786389413988	0.003160680529300567	0	0	0	0	0	0	1	-89.9	89.9;
	286	287	0.01016257088846881	0.0038714555765595464	0	0	0	0	0	0	1	-89.9	89.9;
	287	288	0.00021739130434782607	2.835538752362949e-05	0	0	0	0	0	0	1	-89.9	89.9;
	327	328	0.09938954347826087	0.03658695652173913	0	0	0	0	0	0	1	-89.9	89.9;
	328	329	0.00021739130434782607	2.835538752362949e-05	0	0	0	0	0	0	1	-89.9	89.9;
	328	330	0.078568809073724	0.028922495274102077	0	0	0	0	0	0	1	-89.9	89.9;
	330	331	0.00021739130434782607	2.835538752362949e-05	0	0	0	0	0	0	1	-89.9	89.9;
	330	332	0.24443629489603022	0.08998109640831758	0	0	0	0	0	0	1	-89.9	89.9;
	332	333	0.00021739130434782607	2.835538752362949e-05	0	0	0	0	0	0	1	-89.9	89.9;
	332	334	0.12221814744801511	0.04499054820415879	0	0	0	0	0	0	1	-89.9	89.9;
	334	335	0.00021739130434782607	2.835538752362949e-05	0	0	0	0	0	0	1	-89.9	89.9;
	334	336	0.06547400756143668	0.024102079395085067	0	0	0	0	0	0	1	-89.9	89.9;
	336	337	0.004364933837429111	0.0016068052930056712	0	0	0	0	0	0	1	-89.9	89.9;
	336	338	0.013560982986767486	0.003364839319470699	0	0	0	0	0	0	1	-89.9	89.9;
	338	339	0.00021739130434782607	2.835538752362949e-05	0	0	0	0	0	0	1	-89.9	89.9;
	520	521	0.023818525519848772	0.008506616257088847	0	0	0	0	0	0	1	-89.9	89.9;
	521	522	0.17459735349716446	0.06427221172022685	0	0	0	0	0	0	1	-89.9	89.9;
	522	523	0.1527726843100189	0.0562381852551985	0	0	0	0	0	0	1	-89.9	89.9;
	523	524	0.06351606805293006	0.02268431001890359	0	0	0	0	0	0	1	-89.9	89.9;
	524	525	0.06351606805293006	0.02268431001890359	0	0	0	0	0	0	1	-89.9	89.9;
	525	526	0.07681474480151228	0.027433837429111527	0	0	0	0	0	0	1	-89.9	89.9;
	525	527	0.006780491493383743	0.0016824196597353496	0	0	0	0	0	0	1	-89.9	89.9;
	527	528	0.00021739130434782607	2.835538752362949e-05	0	0	0	0	0	0	1	-89.9	89.9;
	524	529	0.006780491493383743	0.0016824196597353496	0	0	0	0	0	0	1	-89.9	89.9;
	529	530	0.00021739130434782607	2.835538752362949e-05	0	0	0	0	0	0	1	-89.9	89.9;
	523	531	0.05585444234404536	0.019948015122873343	0	0	0	0	0	0	1	-89.9	89.9;
	531	532	0.00021739130434782607	2.835538752362949e-05	0	0	0	0	0	0	1	-89.9	89.9;
	531	533	0.08836672967863893	0.03155954631379962	0	0	0	0	0	0	1	-89.9	89.9;
	533	534	0.00021739130434782607	2.835538752362949e-05	0	0	0	0	0	0	1	-89.9	89.9;
	533	535	0.09368620037807182	0.033459357277882795	0	0	0	0	0	0	1	-89.9	89.9;
	535	536	0.021824669187145557	0.008034026465028356	0	0	0	0	0	0	1	-89.9	89.9;
	535	537	0.05160680529300567	0.018431001890359167	0	0	0	0	0	0	1	-89.9	89.9;
	535	538	0.15595130434782606	0.03869565217391304	0	0	0	0	0	0	1	-89.9	89.9;
	538	539	0.00021739130434782607	2.835538752362949e-05	0	0	0	0	0	0	1	-89.9	89.9;
	614	615	0.19205708884688089	0.07069943289224952	0	0	0	0	0	0	1	-89.9	89.9;
	615	616	0.026189603024574667	0.009640831758034027	0	0	0	0	0	0	1	-89.9	89.9;
	616	617	0.00021739130434782607	2.835538752362949e-05	0	0	0	0	0	0	1	-89.9	89.9;
	615	618	0.039284404536862	0.014461247637051039	0	0	0	0	0	0	1	-89.9	89.9;
	618	619	0.023818525519848772	0.008506616257088847	0	0	0	0	0	0	1	-89.9	89.9;
	619	620	0.00021739130434782607	2.835538752362949e-05	0	0	0	0	0	0	1	-89.9	89.9;
	619	621	0.007939508506616257	0.0028355387523629487	0	0	0	0	0	0	1	-89.9	89.9;
	621	622	0.00021739130434782607	2.835538752362949e-05	0	0	0	0	0	0	1	-89.9	89.9;
	621	623	0.007939508506616257	0.0028355387523629487	0	0	0	0	0	0	1	-89.9	89.9;
	623	624	0.00021739130434782607	2.835538752362949e-05	0	0	0	0	0	0	1	-89.9	89.9;
	623	625	0.06351606805293006	0.02268431001890359	0	0	0	0	0	0	1	-89.9	89.9;
	625	626	0.04366729678638941	0.015595463137996216	0	0	0	0	0	0	1	-89.9	89.9;
	626	627	0.00021739130434782607	2.835538752362949e-05	0	0	0	0	0	0	1	-89.9	89.9;
	625	628	0.07939508506616257	0.02835538752362949	0	0	0	0	0	0	1	-89.9	89.9;
	628	629	0.10321361058601133	0.036862003780718335	0	0	0	0	0	0	1	-89.9	89.9;
	629	630	0.007939508506616257	0.0028355387523629487	0	0	0	0	0	0	1	-89.9	89.9;
	629	631	0.04851039697542533	0.017325141776937617	0	0	0	0	0	0	1	-89.9	89.9;
	631	632	0.00021739130434782607	2.835538752362949e-05	0	0	0	0	0	0	1	-89.9	89.9;
	631	633	0.03854631379962192	0.014684310018903591	0	0	0	0	0	0	1	-89.9	89.9;
	633	634	0.00021739130434782607	2.835538752362949e-05	0	0	0	0	0	0	1	-89.9	89.9;
	631	635	0.05331379962192816	0.0190406427221172	0	0	0	0	0	0	1	-89.9	89.9;
	635	636	0.0555765595463138	0.01984877126654064	0	0	0	0	0	0	1	-89.9	89.9;
	636	637	0.00021739130434782607	2.835538752362949e-05	0	0	0	0	0	0	1	-89.9	89.9;
	636	638	0.015879017013232515	0.005671077504725897	0	0	0	0	0	0	1	-89.9	89.9;
	638	639	0.00021739130434782607	2.835538752362949e-05	0	0	0	0	0	0	1	-89.9	89.9;
	638	640	0.0714555765595463	0.025519848771266538	0	0	0	0	0	0	1	-89.9	89.9;
	640	641	0.039284404536862	0.014461247637051039	0	0	0	0	0	0	1	-89.9	89.9;
	641	642	0.023818525519848772	0.008506616257088847	0	0	0	0	0	0	1	-89.9	89.9;
	642	643	0.00021739130434782607	2.835538752362949e-05	0	0	0	0	0	0	1	-89.9	89.9;
	641	644	0.0795290945179584	0.02927599243856333	0	0	0	0	0	0	1	-89.9	89.9;
	644	645	0.00021739130434782607	2.835538752362949e-05	0	0	0	0	0	0	1	-89.9	89.9;
	644	646	0.028153823251417767	0.010363894139886578	0	0	0	0	0	0	1	-89.9	89.9;
	646	647	0.00021739130434782607	2.835538752362949e-05	0	0	0	0	0	0	1	-89.9	89.9;
	646	648	0.12269829017013233	0.045167296786389415	0	0	0	0	0	0	1	-89.9	89.9;
	640	649	0.2576586767485822	0.06393194706994328	0	0	0	0	0	0	1	-89.9	89.9;
	649	650	0.00021739130434782607	2.835538752362949e-05	0	0	0	0	0	0	1	-89.9	89.9;
	628	651	0.003969754253308129	0.0014177693761814744	0	0	0	0	0	0	1	-89.9	89.9;
	651	652	0.00021739130434782607	2.835538752362949e-05	0	0	0	0	0	0	1	-89.9	89.9;
	615	653	0.10132325141776938	0.007334593572778827	0	0	0	0	0	0	1	-89.9	89.9;
	653	654	0.00021739130434782607	2.835538752362949e-05	0	0	0	0	0	0	1	-89.9	89.9;
	1344	1345	0.09924385633270322	0.03544423440453686	0	0	0	0	0	0	1	-89.9	89.9;
	1345	1346	0.23024574669187145	0.08223062381852551	0	0	0	0	0	0	1	-89.9	89.9;
	1346	1347	0.11405103969754252	0.04073251417769376	0	0	0	0	0	0	1	-89.9	89.9;
	1347	1348	0.00021739130434782607	2.835538752362949e-05	0	0	0	0	0	0	1	-89.9	89.9;
	1347	1349	0.06625519848771266	0.02366257088846881	0	0	0	0	0	0	1	-89.9	89.9;
	1349	1350	0.00021739130434782607	2.835538752362949e-05	0	0	0	0	0	0	1	-89.9	89.9;
	1349	1351	0.06165028355387523	0.022017958412098297	0	0	0	0	0	0	1	-89.9	89.9;
	1351	1352	0.00021739130434782607	2.835538752362949e-05	0	0	0	0	0	0	1	-89.9	89.9;
	1346	1353	0.13497164461247638	0.048204158790170135	0	0	0	0	0	0	1	-89.9	89.9;
	1353	1354	0.09527410207939509	0.034026465028355386	0	0	0	0	0	0	1	-89.9	89.9;
	1354	1355	0.01984877126654064	0.007088846880907372	0	0	0	0	0	0	1	-89.9	89.9;
	1354	1356	0.05160680529300567	0.018431001890359167	0	0	0	0	0	0	1	-89.9	89.9;
	1356	1357	0.0714555765595463	0.025519848771266538	0	0	0	0	0	0	1	-89.9	89.9;
	1357	1358	0.047637051039697544	0.017013232514177693	0	0	0	0	0	0	1	-89.9	89.9;
	1358	1359	0.00021739130434782607	2.835538752362949e-05	0	0	0	0	0	0	1	-89.9	89.9;
	1357	1360	0.013560982986767486	0.003364839319470699	0	0	0	0	0	0	1	-89.9	89.9;
	1360	1361	0.00021739130434782607	2.835538752362949e-05	0	0	0	0	0	0	1	-89.9	89.9;
	1356	1362	0.02034147448015123	0.0050472589792060485	0	0	0	0	0	0	1	-89.9	89.9;
	1362	1363	0.00021739130434782607	2.835538752362949e-05	0	0	0	0	0	0	1	-89.9	89.9;
	1353	1364	0.007939508506616257	0.0028355387523629487	0	0	0	0	0	0	1	-89.9	89.9;
	1364	1365	0.028026465028355384	0.01000945179584121	0	0	0	0	0	0	1	-89.9	89.9;
	1533	1534	0.012504725897920604	0.004465973534971644	0	0	0	0	0	0	1	-89.9	89.9;
	1534	1535	0.011909262759924386	0.004253308128544423	0	0	0	0	0	0	1	-89.9	89.9;
	1535	1536	0.00021739130434782607	2.835538752362949e-05	0	0	0	0	0	0	1	-89.9	89.9;
	1535	1537	0.0173875236294896	0.006209829867674858	0	0	0	0	0	0	1	-89.9	89.9;
	1534	1538	0.19467604914933836	0.07166351606805293	0	0	0	0	0	0	1	-89.9	89.9;
	1538	1539	0.00021739130434782607	2.835538752362949e-05	0	0	0	0	0	0	1	-89.9	89.9;
	1538	1540	0.014370510396975424	0.0051323251417769375	0	0	0	0	0	0	1	-89.9	89.9;
	1540	1541	0.00021739130434782607	2.835538752362949e-05	0	0	0	0	0	0	1	-89.9	89.9;
	1540	1542	0.015998109640831756	0.005713610586011341	0	0	0	0	0	0	1	-89.9	89.9;
	1542	1543	0.00021739130434782607	2.835538752362949e-05	0	0	0	0	0	0	1	-89.9	89.9;
	1542	1544	0.014013232514177692	0.005004725897920605	0	0	0	0	0	0	1	-89.9	89.9;
	1544	1545	0.00021739130434782607	2.835538752362949e-05	0	0	0	0	0	0	1	-89.9	89.9;
	1544	1546	0.010083175803402648	0.003601134215500945	0	0	0	0	0	0	1	-89.9	89.9;
	1538	1547	0.06466729678638941	0.02309546313799622	0	0	0	0	0	0	1	-89.9	89.9;
	1547	1548	0.00021739130434782607	2.835538752362949e-05	0	0	0	0	0	0	1	-89.9	89.9;
	1547	1549	0.01488657844990548	0.005671077504725897	0	0	0	0	0	0	1	-89.9	89.9;
	1547	1550	0.0235406427221172	0.008967863894139887	0	0	0	0	0	0	1	-89.9	89.9;
	1550	1551	0.00021739130434782607	2.835538752362949e-05	0	0	0	0	0	0	1	-89.9	89.9;
	1547	1552	0.033981096408317576	0.012136105860113421	0	0	0	0	0	0	1	-89.9	89.9;
	1552	1553	0.00021739130434782607	2.835538752362949e-05	0	0	0	0	0	0	1	-89.9	89.9;
	1552	1554	0.0241758034026465	0.008634215500945178	0	0	0	0	0	0	1	-89.9	89.9;
	1554	1555	0.00021739130434782607	2.835538752362949e-05	0	0	0	0	0	0	1	-89.9	89.9;
	1554	1556	0.05470321361058601	0.019536862003780717	0	0	0	0	0	0	1	-89.9	89.9;
	1556	1557	0.028542533081285442	0.010193761814744802	0	0	0	0	0	0	1	-89.9	89.9;
	1557	1558	0.00021739130434782607	2.835538752362949e-05	0	0	0	0	0	0	1	-89.9	89.9;
	1557	1559	0.023223062381852552	0.008293950850661626	0	0	0	0	0	0	1	-89.9	89.9;
	1559	1560	0.041999999999999996	0.015	0	0	0	0	0	0	1	-89.9	89.9;
	1560	1561	1.124875643478261	0.14560037807183365	0	0	0	0	0	0	1	-89.9	89.9;
	1561	1562	0.00021739130434782607	2.835538752362949e-05	0	0	0	0	0	0	1	-89.9	89.9;
	1561	1563	0.006669187145557656	0.0025406427221172025	0	0	0	0	0	0	1	-89.9	89.9;
	1561	1564	0.005200378071833648	0.00198109640831758	0	0	0	0	0	0	1	-89.9	89.9;
	1564	1565	0.00021739130434782607	2.835538752362949e-05	0	0	0	0	0	0	1	-89.9	89.9;
	1561	1566	0.12317843289224951	0.04534404536862004	0	0	0	0	0	0	1	-89.9	89.9;
	1566	1567	0.05342679017013232	0.019667296786389413	0	0	0	0	0	0	1	-89.9	89.9;
	1567	1568	0.02699432892249527	0.009640831758034025	0	0	0	0	0	0	1	-89.9	89.9;
	1568	1569	0.019094517958412095	0.006819470699432892	0	0	0	0	0	0	1	-89.9	89.9;
	1569	1570	0.023657941398865782	0.008708884688090739	0	0	0	0	0	0	1	-89.9	89.9;
	1567	1571	0.004366729678638942	0.001559546313799622	0	0	0	0	0	0	1	-89.9	89.9;
	1571	1572	0.00021739130434782607	2.835538752362949e-05	0	0	0	0	0	0	1	-89.9	89.9;
	1571	1573	0.03461625708884688	0.012362948960302456	0	0	0	0	0	0	1	-89.9	89.9;
	1573	1574	0.00021739130434782607	2.835538752362949e-05	0	0	0	0	0	0	1	-89.9	89.9;
	1573	1575	0.03890359168241966	0.01389413988657845	0	0	0	0	0	0	1	-89.9	89.9;
	1575	1576	0.00021739130434782607	2.835538752362949e-05	0	0	0	0	0	0	1	-89.9	89.9;
	1575	1577	0.020920604914933836	0.007471644612476371	0	0	0	0	0	0	1	-89.9	89.9;
	1577	1578	0.00021739130434782607	2.835538752362949e-05	0	0	0	0	0	0	1	-89.9	89.9;
	1577	1579	0.02032514177693762	0.00725897920604915	0	0	0	0	0	0	1	-89.9	89.9;
	1579	1580	0.00021739130434782607	2.835538752362949e-05	0	0	0	0	0	0	1	-89.9	89.9;
	1579	1581	0.016275992438563328	0.005812854442344045	0	0	0	0	0	0	1	-89.9	89.9;
	1566	1582	0.048391304347826083	0.017282608695652173	0	0	0	0	0	0	1	-89.9	89.9;
	1582	1583	0.00021739130434782607	2.835538752362949e-05	0	0	0	0	0	0	1	-89.9	89.9;
	1582	1584	0.026795841209829866	0.009569943289224952	0	0	0	0	0	0	1	-89.9	89.9;
	1584	1585	0.014052930056710773	0.005018903591682419	0	0	0	0	0	0	1	-89.9	89.9;
	1585	1586	0.00021739130434782607	2.835538752362949e-05	0	0	0	0	0	0	1	-89.9	89.9;
	1585	1587	0.010956521739130434	0.003913043478260869	0	0	0	0	0	0	1	-89.9	89.9;
	1587	1588	0.00021739130434782607	2.835538752362949e-05	0	0	0	0	0	0	1	-89.9	89.9;
	1587	1589	0.006629489603024574	0.0023676748582230622	0	0	0	0	0	0	1	-89.9	89.9;
	1589	1590	0.007661625708884687	0.0027362948960302455	0	0	0	0	0	0	1	-89.9	89.9;
	1590	1591	0.00021739130434782607	2.835538752362949e-05	0	0	0	0	0	0	1	-89.9	89.9;
	1590	1592	0.03290926275992439	0.011753308128544424	0	0	0	0	0	0	1	-89.9	89.9;
	1592	1593	0.00021739130434782607	2.835538752362949e-05	0	0	0	0	0	0	1	-89.9	89.9;
	1592	1594	0.0695500945179584	0.024839319470699433	0	0	0	0	0	0	1	-89.9	89.9;
	1594	1595	0.00021739130434782607	2.835538752362949e-05	0	0	0	0	0	0	1	-89.9	89.9;
	1594	1596	0.03957844990548204	0.014135160680529299	0	0	0	0	0	0	1	-89.9	89.9;
	1596	1597	0.00021739130434782607	2.835538752362949e-05	0	0	0	0	0	0	1	-89.9	89.9;
	1596	1598	0.0797523629489603	0.028482986767485823	0	0	0	0	0	0	1	-89.9	89.9;
	1598	1599	0.014172022684310018	0.005061436672967864	0	0	0	0	0	0	1	-89.9	89.9;
	1599	1600	0.053829867674858214	0.01922495274102079	0	0	0	0	0	0	1	-89.9	89.9;
	1600	1601	0.054605322306238185	0.020101134215500943	0	0	0	0	0	0	1	-89.9	89.9;
	1601	1602	0.33566341209829864	0.1235633270321361	0	0	0	0	0	0	1	-89.9	89.9;
	1602	1603	0.05822821739130435	0.02143478260869565	0	0	0	0	0	0	1	-89.9	89.9;
	1600	1604	0.2744291115311909	0.09801039697542531	0	0	0	0	0	0	1	-89.9	89.9;
	1594	1605	0.035172022684310016	0.013398865784499054	0	0	0	0	0	0	1	-89.9	89.9;
	1605	1606	0.00021739130434782607	2.835538752362949e-05	0	0	0	0	0	0	1	-89.9	89.9;
	1559	1607	0.47452173913043477	0.019956521739130435	0	0	0	0	0	0	1	-89.9	89.9;
	1607	1608	0.00021739130434782607	2.835538752362949e-05	0	0	0	0	0	0	1	-89.9	89.9;
	1607	1609	0.18770510396975426	0.00789413988657845	0	0	0	0	0	0	1	-89.9	89.9;
	1609	1610	0.00021739130434782607	2.835538752362949e-05	0	0	0	0	0	0	1	-89.9	89.9;
	1609	1611	0.26335349716446127	0.011075614366729677	0	0	0	0	0	0	1	-89.9	89.9;
	1611	1612	0.00021739130434782607	2.835538752362949e-05	0	0	0	0	0	0	1	-89.9	89.9;
	1607	1613	0.5105255198487713	0.02147069943289225	0	0	0	0	0	0	1	-89.9	89.9;
	1613	1614	0.00021739130434782607	2.835538752362949e-05	0	0	0	0	0	0	1	-89.9	89.9;
	1556	1615	1.2070132325141778	0.08737334593572778	0	0	0	0	0	0	1	-89.9	89.9;
	1615	1616	0.20872589792060495	0.015109262759924387	0	0	0	0	0	0	1	-89.9	89.9;
	1616	1617	0.00021739130434782607	2.835538752362949e-05	0	0	0	0	0	0	1	-89.9	89.9;
	257	1355	0.0001890359168241966	1.8903591682419658e-05	0	0	0	0	0	0	1	-89.9	89.9;
	337	1365	0.0001890359168241966	1.8903591682419658e-05	0	0	0	0	0	0	1	-89.9	89.9;
	108	248	0.0001890359168241966	1.8903591682419658e-05	0	0	0	0	0	0	1	-89.9	89.9;
	537	1581	0.0001890359168241966	1.8903591682419658e-05	0	0	0	0	0	0	1	-89.9	89.9;
	1570	285	0.0001890359168241966	1.8903591682419658e-05	0	0	0	0	0	0	1	-89.9	89.9;
	630	536	0.0001890359168241966	1.8903591682419658e-05	0	0	0	0	0	0	1	-89.9	89.9;
	119	261	0.0001890359168241966	1.8903591682419658e-05	0	0	0	0	0	0	1	-89.9	89.9;
	235	526	0.0001890359168241966	1.8903591682419658e-05	0	0	0	0	0	0	1	-89.9	89.9;
	94	1603	0.0001890359168241966	1.8903591682419658e-05	0	0	0	0	0	0	1	-89.9	89.9;
	613	203	0.0001890359168241966	1.8903591682419658e-05	0	0	0	0	0	0	1	-89.9	89.9;
];

% adds current ratings, is_switch boolean, and default switch state to the branch matrix
%column_names%	c_rating_a	is_switch	z_branch_start	branch_id
mpc.branch_extensions = [
	0.046000000000000006	1	1	84;
	0.07015	0	1	85;
	0.07015	0	1	86;
	0.07015	0	1	87;
	0.0276	0	1	88;
	0.046000000000000006	0	1	89;
	0.046000000000000006	0	1	90;
	0.046000000000000006	1	1	91;
	0.046000000000000006	0	1	92;
	0.046000000000000006	1	1	93;
	0.046000000000000006	0	1	94;
	0.0276	0	1	95;
	0.046000000000000006	0	1	96;
	0.046000000000000006	1	1	97;
	0.046000000000000006	0	1	98;
	0.0529	0	1	99;
	0.0276	0	1	100;
	0.046000000000000006	0	1	101;
	0.0276	0	1	102;
	0.046000000000000006	0	1	103;
	0.046000000000000006	0	1	104;
	0.046000000000000006	0	1	105;
	0.046000000000000006	0	1	106;
	0.046000000000000006	0	1	107;
	0.0276	0	1	108;
	0.0529	0	1	109;
	0.0276	0	1	110;
	0.0529	0	1	111;
	0.0276	0	1	112;
	0.046000000000000006	0	1	113;
	0.046000000000000006	1	1	135;
	0.046000000000000006	0	1	136;
	0.046000000000000006	0	1	137;
	0.046000000000000006	0	1	138;
	0.046000000000000006	0	1	139;
	0.046000000000000006	0	1	140;
	0.0276	0	1	141;
	0.046000000000000006	0	1	142;
	0.046000000000000006	0	1	143;
	0.046000000000000006	0	1	144;
	0.0276	0	1	145;
	0.046000000000000006	0	1	146;
	0.046000000000000006	0	1	147;
	0.046000000000000006	0	1	148;
	0.046000000000000006	0	1	149;
	0.0276	0	1	150;
	0.046000000000000006	0	1	151;
	0.046000000000000006	0	1	152;
	0.046000000000000006	0	1	153;
	0.0276	0	1	154;
	0.046000000000000006	0	1	155;
	0.046000000000000006	0	1	156;
	0.046000000000000006	0	1	157;
	0.0276	0	1	158;
	0.046000000000000006	0	1	159;
	0.046000000000000006	0	1	160;
	0.046000000000000006	0	1	161;
	0.0276	0	1	162;
	0.046000000000000006	0	1	163;
	0.0276	0	1	164;
	0.046000000000000006	0	1	165;
	0.046000000000000006	0	1	166;
	0.0276	0	1	167;
	0.046000000000000006	1	1	168;
	0.07015	0	1	169;
	0.07015	0	1	170;
	0.07015	0	1	171;
	0.07015	0	1	172;
	0.046000000000000006	0	1	173;
	0.07015	0	1	174;
	0.07015	0	1	175;
	0.0276	0	1	176;
	0.046000000000000006	0	1	177;
	0.0276	0	1	178;
	0.07015	0	1	179;
	0.0529	0	1	180;
	0.0276	0	1	181;
	0.07015	0	1	182;
	0.07015	0	1	183;
	0.0529	0	1	184;
	0.0276	0	1	185;
	0.07015	0	1	186;
	0.07015	0	1	187;
	0.0529	0	1	188;
	0.0276	0	1	189;
	0.07015	0	1	190;
	0.07015	0	1	191;
	0.07015	0	1	192;
	0.0276	0	1	193;
	0.07015	0	1	194;
	0.0276	0	1	195;
	0.07015	0	1	196;
	0.0276	0	1	197;
	0.07015	0	1	198;
	0.0276	0	1	199;
	0.07015	0	1	200;
	0.0276	0	1	201;
	0.07015	0	1	202;
	0.07015	0	1	203;
	0.0276	0	1	204;
	0.023000000000000003	0	1	205;
	0.023000000000000003	0	1	206;
	0.023000000000000003	0	1	207;
	0.0276	0	1	208;
	0.07015	0	1	209;
	0.0276	0	1	210;
	0.07015	0	1	211;
	0.07015	0	1	212;
	0.07015	0	1	213;
	0.0276	0	1	214;
	0.07015	0	1	215;
	0.046000000000000006	0	1	216;
	0.0276	0	1	217;
	0.046000000000000006	0	1	218;
	0.046000000000000006	0	1	219;
	0.046000000000000006	0	1	220;
	0.0276	0	1	221;
	0.07015	0	1	222;
	0.07015	0	1	223;
	0.046000000000000006	0	1	224;
	0.0276	0	1	225;
	0.046000000000000006	0	1	226;
	0.0276	0	1	227;
	0.07015	0	1	228;
	0.0276	0	1	229;
	0.046000000000000006	0	1	230;
	0.046000000000000006	0	1	231;
	0.046000000000000006	0	1	232;
	0.046000000000000006	1	1	235;
	0.046000000000000006	0	1	236;
	0.046000000000000006	0	1	237;
	0.046000000000000006	0	1	238;
	0.046000000000000006	1	1	239;
	0.046000000000000006	0	1	240;
	0.046000000000000006	0	1	241;
	0.046000000000000006	0	1	242;
	0.0276	0	1	243;
	0.046000000000000006	0	1	244;
	0.0276	0	1	245;
	0.046000000000000006	0	1	246;
	0.07015	0	1	247;
	0.07015	0	1	248;
	0.046000000000000006	0	1	249;
	0.0276	0	1	250;
	0.046000000000000006	0	1	251;
	0.0276	0	1	252;
	0.046000000000000006	0	1	253;
	0.023000000000000003	0	1	254;
	0.0276	0	1	255;
	0.023000000000000003	0	1	256;
	0.046000000000000006	0	1	257;
	0.0276	0	1	258;
	0.046000000000000006	0	1	259;
	0.0276	0	1	260;
	0.046000000000000006	0	1	261;
	0.046000000000000006	0	1	262;
	0.07015	1	1	263;
	0.046000000000000006	0	1	264;
	0.046000000000000006	0	1	265;
	0.046000000000000006	1	1	266;
	0.046000000000000006	0	1	267;
	0.0276	0	1	268;
	0.07015	1	1	303;
	0.0276	0	1	304;
	0.07015	0	1	305;
	0.0276	0	1	306;
	0.07015	0	1	307;
	0.0276	0	1	308;
	0.07015	0	1	309;
	0.0276	0	1	310;
	0.07015	0	1	311;
	0.07015	0	1	312;
	0.0529	0	1	313;
	0.0276	0	1	314;
	0.046000000000000006	1	1	492;
	0.07015	0	1	493;
	0.07015	0	1	494;
	0.046000000000000006	0	1	495;
	0.046000000000000006	0	1	496;
	0.046000000000000006	0	1	497;
	0.0529	0	1	498;
	0.0276	0	1	499;
	0.0529	0	1	500;
	0.0276	0	1	501;
	0.046000000000000006	0	1	502;
	0.0276	0	1	503;
	0.046000000000000006	0	1	504;
	0.0276	0	1	505;
	0.046000000000000006	0	1	506;
	0.07015	0	1	507;
	0.046000000000000006	0	1	508;
	0.0529	0	1	509;
	0.0276	0	1	510;
	0.07015	1	1	582;
	0.07015	0	1	583;
	0.0276	0	1	584;
	0.07015	0	1	585;
	0.046000000000000006	0	1	586;
	0.0276	0	1	587;
	0.046000000000000006	0	1	588;
	0.0276	0	1	589;
	0.046000000000000006	0	1	590;
	0.0276	0	1	591;
	0.046000000000000006	0	1	592;
	0.046000000000000006	0	1	593;
	0.0276	0	1	594;
	0.046000000000000006	0	1	595;
	0.046000000000000006	0	1	596;
	0.046000000000000006	0	1	597;
	0.046000000000000006	0	1	598;
	0.0276	0	1	599;
	0.046000000000000006	0	1	600;
	0.0276	0	1	601;
	0.046000000000000006	0	1	602;
	0.046000000000000006	0	1	603;
	0.0276	0	1	604;
	0.046000000000000006	0	1	605;
	0.0276	0	1	606;
	0.046000000000000006	0	1	607;
	0.07015	0	1	608;
	0.046000000000000006	0	1	609;
	0.0276	0	1	610;
	0.07015	0	1	611;
	0.0276	0	1	612;
	0.07015	0	1	613;
	0.0276	0	1	614;
	0.07015	0	1	615;
	0.0529	0	1	616;
	0.0276	0	1	617;
	0.046000000000000006	0	1	618;
	0.0276	0	1	619;
	0.023000000000000003	0	1	620;
	0.0276	0	1	621;
	0.046000000000000006	1	1	1274;
	0.046000000000000006	0	1	1275;
	0.046000000000000006	0	1	1276;
	0.0276	0	1	1277;
	0.046000000000000006	0	1	1278;
	0.0276	0	1	1279;
	0.046000000000000006	0	1	1280;
	0.0276	0	1	1281;
	0.046000000000000006	0	1	1282;
	0.046000000000000006	0	1	1283;
	0.046000000000000006	0	1	1284;
	0.046000000000000006	0	1	1285;
	0.046000000000000006	0	1	1286;
	0.046000000000000006	0	1	1287;
	0.0276	0	1	1288;
	0.0529	0	1	1289;
	0.0276	0	1	1290;
	0.0529	0	1	1291;
	0.0276	0	1	1292;
	0.046000000000000006	0	1	1293;
	0.046000000000000006	0	1	1294;
	0.046000000000000006	1	1	1443;
	0.046000000000000006	0	1	1444;
	0.0276	0	1	1445;
	0.046000000000000006	0	1	1446;
	0.07015	0	1	1447;
	0.0276	0	1	1448;
	0.046000000000000006	0	1	1449;
	0.0276	0	1	1450;
	0.046000000000000006	0	1	1451;
	0.0276	0	1	1452;
	0.046000000000000006	0	1	1453;
	0.0276	0	1	1454;
	0.046000000000000006	0	1	1455;
	0.046000000000000006	0	1	1456;
	0.0276	0	1	1457;
	0.046000000000000006	0	1	1458;
	0.046000000000000006	0	1	1459;
	0.0276	0	1	1460;
	0.046000000000000006	0	1	1461;
	0.0276	0	1	1462;
	0.046000000000000006	0	1	1463;
	0.0276	0	1	1464;
	0.046000000000000006	0	1	1465;
	0.046000000000000006	0	1	1466;
	0.0276	0	1	1467;
	0.046000000000000006	0	1	1468;
	0.046000000000000006	1	1	1469;
	0.0345	0	1	1470;
	0.0276	0	1	1471;
	0.046000000000000006	0	1	1472;
	0.046000000000000006	0	1	1473;
	0.0276	0	1	1474;
	0.07015	0	1	1475;
	0.07015	0	1	1476;
	0.046000000000000006	0	1	1477;
	0.046000000000000006	0	1	1478;
	0.07015	0	1	1479;
	0.046000000000000006	0	1	1480;
	0.0276	0	1	1481;
	0.046000000000000006	0	1	1482;
	0.0276	0	1	1483;
	0.046000000000000006	0	1	1484;
	0.0276	0	1	1485;
	0.046000000000000006	0	1	1486;
	0.0276	0	1	1487;
	0.046000000000000006	0	1	1488;
	0.0276	0	1	1489;
	0.046000000000000006	0	1	1490;
	0.046000000000000006	0	1	1491;
	0.0276	0	1	1492;
	0.046000000000000006	1	1	1493;
	0.046000000000000006	0	1	1494;
	0.0276	0	1	1495;
	0.046000000000000006	0	1	1496;
	0.0276	0	1	1497;
	0.046000000000000006	0	1	1498;
	0.046000000000000006	0	1	1499;
	0.0276	0	1	1500;
	0.046000000000000006	0	1	1501;
	0.0276	0	1	1502;
	0.046000000000000006	0	1	1503;
	0.0276	0	1	1504;
	0.046000000000000006	0	1	1505;
	0.0276	0	1	1506;
	0.046000000000000006	0	1	1507;
	0.046000000000000006	0	1	1508;
	0.046000000000000006	0	1	1509;
	0.07015	0	1	1510;
	0.07015	0	1	1511;
	0.07015	0	1	1512;
	0.046000000000000006	0	1	1513;
	0.046000000000000006	0	1	1514;
	0.0276	0	1	1515;
	0.01725	0	1	1516;
	0.0276	0	1	1517;
	0.01725	0	1	1518;
	0.0276	0	1	1519;
	0.01725	0	1	1520;
	0.0276	0	1	1521;
	0.01725	0	1	1522;
	0.0276	0	1	1523;
	0.023000000000000003	0	1	1524;
	0.023000000000000003	0	1	1525;
	0.0276	0	1	1526;
	2.3000000000000003	1	0	3608;
	2.3000000000000003	1	0	3610;
	2.3000000000000003	1	0	3617;
	2.3000000000000003	1	0	3618;
	2.3000000000000003	1	0	3619;
	2.3000000000000003	1	0	3620;
	2.3000000000000003	1	0	3622;
	2.3000000000000003	1	0	3623;
	2.3000000000000003	1	0	3626;
	2.3000000000000003	1	0	3630;
];